$ WAVEWATCH III multi-grid input file
$ for NEMS Coupled FV3/WW3 
$ ------------------------------------
$
1 0 T 1 T T
$
'points'
$
$$ the presence of 1) water levels 2) currents 3) winds 4) ice and
$ 5-7) assimilation data as in the file ww3_shel.inp.
'glo_30m'  'no' 'CPL:native' 'CPL:native' 'CPL:native' 'no' 'no' 'no'   1  1  0.00 1.00  F
$
   20130401 000000   20130402 000000
$
   F  F
$
$   20130401 000000  1800  20130402 000000 1 
   20130401 000000  1800  20130402 000000
   N
   WND HS T01 FP DIR DP PHS PTP PTH UST CHA ICE CUR
$
$   20130401 000000  10800  20130402 000000  1
   20130401 000000  3600  20130402 000000 
   -88.77   30.09  '42007     '   5.0   DAT  NDBC      90
   -95.36   27.91  '42019     '   5.0   DAT  NDBC      90
   -96.70   26.94  '42020     '   5.0   DAT  NDBC      90
   -94.40   29.22  '42035     '   5.0   DAT  NDBC      90
   -84.52   28.50  '42036     '   5.0   DAT  NDBC      90
     0.00    0.00  'STOPSTRING'  999.   XXX  NCEP       0
$
   20130401 000000      0  20130402 000000
$
   20130401 000000      0  20130402 000000 T
   20130401 000000  43200  20130402 000000
$
   20130401 000000      0  20130402 000000
$
   20130401 000000      0  20130402 000000
$
  'the_end'  0
$
  'STP'
$
$ End of input file
